test/test_files/validation_tests/case3375wp_res.m
function mpc = case3375wp_res
%CASE3375WP_RES

%% MATPOWER Case Format : Version 2
mpc.version = '2';

%%-----  Power Flow Data  -----%%
%% system MVA base
mpc.baseMVA = 100;

%% bus data
%	bus_i	type	Pd	Qd	Gs	Bs	area	Vm	Va	baseKV	zone	Vmax	Vmin
mpc.bus = [
	10000	1	0	0	0	0	0	1.04686467	-10.4468166	400	0	1.05	0.95;
	10001	1	0	0	0	0	0	1.04831196	-14.5202065	400	0	1.05	0.95;
	10002	1	0	0	0	0	0	1.07249557	-16.4408226	220	0	1.11	0.95;
	10003	1	0	0	0	0	0	1.04519533	-17.4228481	400	0	1.05	0.95;
	10004	1	0	0	0	0	0	1.04393893	-13.5509442	400	0	1.05	0.95;
	10005	1	0	0	0	0	0	1.04431576	-15.9847311	400	0	1.05	0.95;
	10006	1	0	0	0	0	0	1.0406978	-9.32720128	400	0	1.05	0.95;
	10007	1	0	0	0	0	0	1.07321161	-15.3747968	220	0	1.11	0.95;
	10008	1	0	0	0	0	0	1.07070549	-17.5636161	220	0	1.11	0.95;
	10009	1	0	0	0	0	0	1.04432273	-16.7686022	400	0	1.05	0.95;
	10010	1	0	0	0	0	0	1.04909524	-11.5721738	400	0	1.05	0.95;
	10011	1	0	0	0	0	0	1.04467916	-18.1028024	400	0	1.05	0.95;
	10012	1	0	0	0	0	0	1.04467916	-18.1028024	400	0	1.05	0.95;
	10013	1	0	0	0	0	0	1.04557964	-11.7780507	400	0	1.05	0.95;
	10014	1	0	0	0	0	0	1.04578162	-11.8095498	400	0	1.05	0.95;
	10015	1	0	0	0	0	0	1.04471836	-17.7074461	400	0	1.05	0.95;
	10016	1	0	0	0	0	0	1.04576645	-11.6970702	400	0	1.05	0.95;
	10017	1	0	0	0	0	0	1.04570153	-11.7011356	400	0	1.05	0.95;
	10018	1	0	0	0	0	0	1.04568293	-11.6938886	400	0	1.05	0.95;
	10019	1	0	0	0	0	0	1.04578696	-11.8095815	400	0	1.05	0.95;
	10020	1	0	0	0	0	0	1.0499533	-13.5498027	400	0	1.05	0.95;
	10021	1	0	0	0	0	0	1.0762862	-16.1038792	220	0	1.11	0.95;
	10022	1	0	0	0	0	0	1.07480392	-16.5163359	220	0	1.11	0.95;
	10023	1	0	0	0	0	0	1.04573414	-11.2031324	400	0	1.05	0.95;
	10024	1	0	0	0	0	0	1.04548203	-11.3025859	400	0	1.05	0.95;
	10025	1	0	0	0	0	0	1.04564226	-11.2497194	400	0	1.05	0.95;
	10026	1	0	0	0	0	0	1.04126646	-7.44617921	400	0	1.05	0.95;
	10027	1	0	0	0	0	0	1.04166646	-7.17329544	400	0	1.05	0.95;
	10028	1	0	0	0	0	0	1.04177778	-6.97583815	400	0	1.05	0.95;
	10029	1	0	0	0	0	0	1.04910008	-11.0243333	400	0	1.05	0.95;
	10030	1	0	0	0	0	0	1.04909076	-11.0191366	400	0	1.05	0.95;
	10031	1	0	0	0	0	0	1.08680535	-11.0492854	220	0	1.11	0.95;
	10032	1	0	0	0	0	0	1.04131406	-7.46168572	400	0	1.05	0.95;
	10033	1	0	0	0	0	0	1.04130065	-7.46158485	400	0	1.05	0.95;
	10034	1	0	0	0	0	0	1.04252911	-13.679038	400	0	1.05	0.95;
	10035	1	0	0	0	0	0	1.07250122	-11.8156764	220	0	1.11	0.95;
	10036	1	0	0	0	0	0	1.07256318	-11.8233756	220	0	1.11	0.95;
	10037	1	0	0	0	0	0	1.041298	-7.55965219	400	0	1.05	0.95;
	10038	1	0	0	0	0	0	1.04134363	-7.56776121	400	0	1.05	0.95;
	10039	1	0	0	0	0	0	1.04177105	-7.60539125	400	0	1.05	0.95;
	10040	1	0	0	0	0	0	1.04506167	-12.6533268	400	0	1.05	0.95;
	10041	1	0	0	0	0	0	1.04915521	-11.1579006	400	0	1.05	0.95;
	10042	1	0	0	0	0	0	1.04489225	-18.3697732	400	0	1.05	0.95;
	10043	1	0	0	0	0	0	1.06595557	-13.904162	220	0	1.11	0.95;
	10044	1	0	0	0	0	0	1.07304594	-13.068445	220	0	1.11	0.95;
	10045	1	0	0	0	0	0	1.06738076	-18.4249707	220	0	1.11	0.95;
	10046	1	0	0	0	0	0	1.07476346	-16.5158447	220	0	1.11	0.95;
	10047	1	0	0	0	0	0	1.04345332	-19.2482099	400	0	1.05	0.95;
	10048	1	0	0	0	0	0	1.04593165	-10.9416741	400	0	1.05	0.95;
	10049	1	0	0	0	0	0	1.04881096	-11.4433253	400	0	1.05	0.95;
	10050	1	0	0	0	0	0	1.04915521	-11.1579006	400	0	1.05	0.95;
	10051	1	0	0	0	0	0	1.06434644	-18.1745233	220	0	1.11	0.95;
	10052	1	0	0	0	0	0	1.04278672	-16.0115778	400	0	1.05	0.95;
	10053	1	0	0	0	0	0	1.08849342	-10.4906129	220	0	1.11	0.95;
	10054	1	0	0	0	0	0	1.08849342	-10.4906129	220	0	1.11	0.95;
	10055	1	0	0	0	0	0	1.08022337	-14.410305	220	0	1.11	0.95;
	10056	1	0	0	0	0	0	1.04167335	-9.58175415	400	0	1.05	0.95;
	10057	1	0	0	0	0	0	1.03958097	-8.5542705	400	0	1.05	0.95;
	10058	1	0	0	0	0	0	1.05990742	-16.3646399	220	0	1.11	0.95;
	10059	1	0	0	0	0	0	1.05006192	-15.442852	400	0	1.05	0.95;
	10060	1	0	0	0	0	0	1.04132082	-7.56370679	400	0	1.05	0.95;
	10061	1	0	0	0	0	0	1.04167335	-9.58175415	400	0	1.05	0.95;
	10062	1	0	0	0	0	0	1.04295472	-15.2377812	400	0	1.05	0.95;
	10063	1	0	0	0	0	0	1.04577853	-11.8095375	400	0	1.05	0.95;
	10064	1	0	0	0	0	0	1.06573625	-15.889854	220	0	1.11	0.95;
	10065	1	0	0	0	0	0	1.04672212	-13.1287292	400	0	1.05	0.95;
	10066	1	0	0	0	0	0	1.04877725	-11.8398293	400	0	1.05	0.95;
	10067	1	0	0	0	0	0	1.06756127	-14.9943079	220	0	1.11	0.95;
	10068	1	0	0	0	0	0	1.04901695	-12.7314166	400	0	1.05	0.95;
	10069	1	0	0	0	0	0	1.06641244	-18.7498498	220	0	1.11	0.95;
	10070	1	0	0	0	0	0	1.04463341	-18.102553	400	0	1.05	0.95;
	10071	2	16	8	0	0	0	1.07617	-14.7553984	220	0	1.11	0.95;
	10072	1	0	0	0	0	0	1.08594938	-11.2249372	220	0	1.11	0.95;
	10073	1	0	0	0	0	1	1.07467419	-12.8140788	220	0	1.11	0.95;
	10074	1	0	0	0	0	0	1.07381738	-12.7899296	220	0	1.11	0.95;
	10075	1	0	0	0	0	0	1.07253654	-13.6222277	220	0	1.11	0.95;
	10076	1	0	0	0	0	0	1.0454708	-11.3025236	400	0	1.05	0.95;
	10077	1	0	0	0	0	0	1.0454708	-11.3025236	400	0	1.05	0.95;
	10078	1	305.5	-14	0	0	0	1.03443586	-7.60711858	400	0	1.05	0.95;
	10079	2	-1529.6	4542.9	0	0	0	1.01319	0.63522848	400	0	1.05	0.95;
	10080	2	-159.1	-181	0	0	0	1.02855	-4.0676823	400	0	1.05	0.95;
	10081	1	-1078.3	-374.1	0	0	0	1.03449522	-0.185275336	400	0	1.05	0.95;
	10082	1	943.2	310.2	0	0	0	1.00366146	-3.76202591	400	0	1.05	0.95;
	10083	1	97	26	0	0	0	1.04141355	-4.50270369	400	0	1.05	0.95;
	10084	1	0.6	160	0	0	0	1.04228081	-4.30716692	400	0	1.05	0.95;
	10085	1	161.6	183.6	0	0	0	1.04124342	-4.45722317	400	0	1.05	0.95;
	10086	1	288.6	221.6	0	0	0	1.04123201	-4.45987444	400	0	1.05	0.95;
	10087	1	0	0	0	0	0	1.04329442	-4.18641273	400	0	1.05	0.95;
	10088	1	0	0	0	0	0	1.08924144	-4.6180713	220	0	1.11	0.95;
	10089	1	0	0	0	0	0	1.08699967	-4.74279305	220	0	1.11	0.95;
	10090	2	274.4	279.6	0	0	0	1.04139	-4.50675082	400	0	1.05	0.95;
	10091	1	94.2	111.8	0	0	0	1.04083016	-4.56261223	400	0	1.05	0.95;
	10092	1	0	0	0	0	0	1.08536708	-4.83198078	220	0	1.11	0.95;
	10093	1	0	0	0	0	0	1.08802277	-4.68722351	220	0	1.11	0.95;
	10094	2	0	0	0	0	0	1.03526	-3.81386537	400	0	1.05	0.95;
	10095	2	4.4	-2590.1	0	0	0	1.02969	-5.19487095	400	0	1.05	0.95;
	10096	1	488	79.1	0	0	0	1.02127167	-5.4082739	400	0	1.05	0.95;
	10097	1	601	147.9	0	0	0	1.02468226	-5.31606883	400	0	1.05	0.95;
	10098	1	527	265.1	0	0	0	1.02591624	-4.59868795	400	0	1.05	0.95;
	10099	1	0	0	0	0	0	1.00481214	-1.73518623	400	0	1.05	0.95;
	10100	2	0	0	0	0	0	1.04073	-0.18535942	400	0	1.05	0.95;
	10101	1	0	0	0	0	0	1.04149051	-16.2044882	220	0	1.11	0.95;
	10102	1	120	25	0	0	0	1.06283079	-9.01652653	220	0	1.11	0.95;
	10103	1	0	0	0	0	0	1.03973344	-2.56139247	400	0	1.05	0.95;
	10104	2	200.2	48.7	0	0	0	1.04409	-1.44577495	400	0	1.05	0.95;
	10105	1	0	0	0	0	0	1.06456048	-7.15890774	220	0	1.11	0.95;
	10106	1	0	0	0	0	0	1.0343911	-3.85880773	400	0	1.05	0.95;
	10107	1	0	0	0	0	0	1.04250276	-2.1890061	400	0	1.05	0.95;
	10108	1	0	0	0	0	0	1.04309373	-1.8727137	400	0	1.05	0.95;
	10109	1	0	0	0	0	0	1.04246264	-2.11245738	400	0	1.05	0.95;
	10110	1	0	0	0	0	0	1.0430784	-1.79152367	400	0	1.05	0.95;
	10111	1	0	0	0	0	0	1.02626484	-1.09273196	400	0	1.05	0.95;
	10112	1	0	0	0	0	0	1.1080879	-4.32617937	220	0	1.11	0.95;
	10113	1	0	0	0	0	0	1.01803981	-1.81006563	400	0	1.05	0.95;
	10114	1	0	0	0	0	0	1.09057749	-6.27592709	220	0	1.11	0.95;
	10115	2	0	0	0	0	0	1.00234	-1.51435517	400	0	1.05	0.95;
	10116	2	0	0	0	0	0	1.00234	-1.51435517	400	0	1.05	0.95;
	10117	1	0	0	0	0	0	1.03214844	-4.50919191	400	0	1.05	0.95;
	10118	2	0	0	0	0	0	1.04097	0.183563766	400	0	1.05	0.95;
	10119	1	0	0	0	0	0	1.01217363	-2.59811138	400	0	1.05	0.95;
	10120	1	0	0	0	0	0	1.03979203	-3.0521084	400	0	1.05	0.95;
	10121	1	80	20	0	0	0	1.05964109	-8.78302676	220	0	1.11	0.95;
	10122	1	0	0	0	0	0	1.05016444	-9.11747147	220	0	1.11	0.95;
	10123	1	0	0	0	0	0	1.04890453	-3.22156418	400	0	1.05	0.95;
	10124	1	0	0	0	0	0	1.05013589	0.175242623	400	0	1.05	0.95;
	10125	1	0	0	0	0	0	1.01317039	-3.63154306	400	0	1.05	0.95;
	10126	2	0	0	0	0	0	1.00802	-2.79962012	400	0	1.05	0.95;
	10127	1	0	0	0	0	0	1.09610123	-6.53630774	220	0	1.11	0.95;
	10128	1	0	0	0	0	0	1.09610123	-6.53630774	220	0	1.11	0.95;
	10129	2	0.2	100	0	0	0	1.04538	1.13504975	400	0	1.05	0.95;
	10130	1	0	0	0	0	0	1.04546345	1.10857744	400	0	1.05	0.95;
	10131	1	0	0	0	0	0	1.00965071	-3.30204451	400	0	1.05	0.95;
	10132	2	0	0	0	0	0	1.02908	-3.90848408	400	0	1.05	0.95;
	10133	1	0	0	0	0	0	1.05049384	-3.11442135	400	0	1.05	0.95;
	10134	1	0	0	0	0	0	1.04763216	-3.72247982	400	0	1.05	0.95;
	10135	1	0	0	0	0	0	1.05103542	-8.94454919	220	0	1.11	0.95;
	10136	1	0	0	0	0	0	1.07155365	-6.83884489	220	0	1.11	0.95;
	10137	1	0	0	0	0	0	1.04004222	-18.735806	220	0	1.11	0.95;
	10138	1	0	0	0	0	0	1.03398467	-4.30372751	400	0	1.05	0.95;
	10139	2	0	0	0	0	0	1.03742	-1.02192829	400	0	1.05	0.95;
	10140	2	0	0	0	0	0	1.03856	-0.538740137	400	0	1.05	0.95;
	10141	2	0	0	0	0	0	1.01264	-0.912919961	400	0	1.05	0.95;
	10142	1	0	0	0	0	0	1.03741202	-4.01320144	400	0	1.05	0.95;
	10143	1	0	0	0	0	0	1.03591959	-2.31174523	400	0	1.05	0.95;
	10144	1	0	0	0	0	0	1.03593876	-2.31064752	400	0	1.05	0.95;
	10145	1	0	0	0	0	0	1.01023345	-3.05954003	400	0	1.05	0.95;
	10146	2	0	0	0	0	0	1.04296	-2.83539868	220	0	1.11	0.95;
	10147	1	0	0	0	0	0	1.03121838	-4.72936907	400	0	1.05	0.95;
	10148	1	0	0	0	0	0	1.07348619	-6.50559275	220	0	1.11	0.95;
	10149	1	0	0	0	0	0	1.07346709	-6.50846719	220	0	1.11	0.95;
	10150	2	0	0	0	0	0	1.04015	-2.43529938	400	0	1.05	0.95;
	10151	1	0	0	0	0	0	1.04141987	-2.49667955	400	0	1.05	0.95;
	10152	1	0	0	0	0	0	1.04661133	-0.372851737	400	0	1.05	0.95;
	10153	1	0	0	0	0	0	1.03097234	-2.14049898	400	0	1.05	0.95;
	10154	1	80	20	0	0	0	1.03598294	-3.57308035	220	0	1.11	0.95;
	10155	1	0	0	0	0	0	1.08189085	-6.6858568	220	0	1.11	0.95;
	10156	1	0	0	0	0	0	1.03072424	-4.48667239	400	0	1.05	0.95;
	10157	1	0	0	0	0	0	1.0869809	-4.66477766	220	0	1.11	0.95;
	10158	1	0	0	0	0	0	1.01374816	-2.25724169	400	0	1.05	0.95;
	10159	1	0	0	0	0	0	1.10999796	-4.18818725	220	0	1.11	0.95;
	10160	1	0	0	0	0	0	1.06420724	-19.871078	220	0	1.11	0.95;
	10161	1	0	0	0	0	0	1.02085733	-4.01624484	400	0	1.05	0.95;
	10162	1	0	0	0	0	0	1.05921335	-8.23839955	220	0	1.11	0.95;
	10163	1	0	0	0	0	0	1.09451582	-6.74873001	220	0	1.11	0.95;
	10164	1	0	0	0	0	0	1.02895295	-4.11129381	400	0	1.05	0.95;
	10165	1	0	0	0	0	0	1.03323754	-5.07025907	400	0	1.05	0.95;
	10166	1	0	0	0	0	0	1.07014347	-8.05366157	220	0	1.11	0.95;
	10167	1	0	0	0	0	0	1.02903398	-4.40060465	400	0	1.05	0.95;
	10168	1	0	0	0	0	0	1.02903398	-4.40060465	400	0	1.05	0.95;
	10169	1	0	0	0	0	0	1.02937841	-4.3540873	400	0	1.05	0.95;
	10170	1	0	0	0	0	0	1.02937841	-4.3540873	400	0	1.05	0.95;
	10171	2	-104.8	-159	0	0	0	1.02955	-3.80927085	400	0	1.05	0.95;
	10172	1	247.4	-57.5	0	0	0	1.02971531	-5.19939711	400	0	1.05	0.95;
	10173	1	247.4	-57.5	0	0	0	1.02971531	-5.19939711	400	0	1.05	0.95;
	10174	1	371.5	403.5	0	0	0	1.02061379	-5.4297899	400	0	1.05	0.95;
	10176	2	-249.9	162.6	0	0	0	1.02979	-3.9676198	400	0	1.05	0.95;
	10177	2	-249.9	162.6	0	0	0	1.02979	-3.9676198	400	0	1.05	0.95;
	10178	1	52.5	207.2	0	0	0	1.02728418	-10.1058804	400	0	1.05	0.95;
	10179	1	379.5	54.6	0	0	0	1.03890486	-12.8540329	400	0	1.05	0.95;
	10180	1	73.6	-95.6	0	0	0	1.08760287	-16.3585433	220	0	1.11	0.95;
	10181	1	73.6	-95.6	0	0	0	1.08760287	-16.3585433	220	0	1.11	0.95;
	10182	1	107.2	-44.4	0	0	0	1.04995133	-12.2910854	400	0	1.05	0.95;
	10183	1	86	8	0	0	0	1.04860403	-10.1323261	400	0	1.05	0.95;
	10184	1	70	49	0	0	0	1.05072686	-14.0308584	220	0	1.11	0.95;
	10185	1	0	0	0	0	0	1.0493934	-12.397533	400	0	1.05	0.95;
	10186	2	0	0	0	0	0	1.08932	-7.26957576	220	0	1.11	0.95;
	10187	2	0	0	0	0	0	1.0894	-7.23666143	220	0	1.11	0.95;
	10188	2	0	0	0	0	0	1.04594	-8.79837013	400	0	1.05	0.95;
	10189	2	10.2	0	0	0	0	1.04556	-10.0235082	400	0	1.05	0.95;
	10190	2	0	0	0	0	0	1.04288	-9.64564082	400	0	1.05	0.95;
	10191	2	0	0	0	0	0	1.04288	-9.64021287	400	0	1.05	0.95;
	10192	2	0	0	0	0	0	1.04073	-10.8206155	220	0	1.11	0.95;
	10193	1	0	0	0	0	0	1.0407258	-10.8229265	220	0	1.11	0.95;
	10194	2	0	0	0	0	0	1.03584	-9.14326771	400	0	1.05	0.95;
	10195	1	0	0	0	0	0	1.03661314	-9.18227831	400	0	1.05	0.95;
	10196	2	0	0	0	0	0	1.04091	-12.3338234	400	0	1.05	0.95;
	10197	1	295	51.9	0	0	0	1.04398578	-11.9282483	400	0	1.05	0.95;
	10198	1	0	0	0	0	0	1.04664555	-10.5255726	400	0	1.05	0.95;
	10199	1	308	40	0	0	0	1.08152426	-9.76220434	220	0	1.11	0.95;
	10200	1	0	0	0	0	0	1.08153801	-9.74549404	220	0	1.11	0.95;
...
];

%% generator data
%	bus	Pg	Qg	Qmax	Qmin	Vg	mBase	status	Pmax	Pmin	Pc1	Pc2	Qc1min	Qc1max	Qc2min	Qc2max	ramp_agc	ramp_10	ramp_30	ramp_q	apf
mpc.gen = [
	10071	133.9	0.785981167	99999	-99999	1.07617	285	1	204.6	133.9	0	0	0	0	0	0	0	0	0	0	0;
	10079	359.9	4406.25517	99999	-99999	1.01319	2031	1	549.9	359.9	0	0	0	0	0	0	0	0	0	0	0;
	10080	7.6	-356.918009	99999	-99999	1.02855	119	1	11.6	7.6	0	0	0	0	0	0	0	0	0	0	0;
	10090	410.4	178.445276	99999	-99999	1.04139	806	1	627	410.4	0	0	0	0	0	0	0	0	0	0	0;
	10094	554.4	10093.9219	99999	-99999	1.03526	970	1	847	554.4	0	0	0	0	0	0	0	0	0	0	0;
	10095	121.8	-2579.9043	99999	-99999	1.02969	1439	1	1241.5	121.8	0	0	0	0	0	0	0	0	0	0	0;
	10100	1267.2	-115.795388	99999	-99999	1.04073	2202	1	1936	1267.2	0	0	0	0	0	0	0	0	0	0	0;
	10104	540	56.8106533	99999	-99999	1.04409	939	1	825	540	0	0	0	0	0	0	0	0	0	0	0;
	10115	280.8	-228.331038	99999	-99999	1.00234	492	1	429	280.8	0	0	0	0	0	0	0	0	0	0	0;
	10116	280.8	-228.331038	99999	-99999	1.00234	492	1	429	280.8	0	0	0	0	0	0	0	0	0	0	0;
	10118	1080	64.0150879	99999	-99999	1.04097	1876	1	1650	1080	0	0	0	0	0	0	0	0	0	0	0;
	10126	424.8	-432.723963	99999	-99999	1.00802	786	1	649	424.8	0	0	0	0	0	0	0	0	0	0	0;
	10129	1656	-438.861823	99999	-99999	1.04538	2974	1	2530	1656	0	0	0	0	0	0	0	0	0	0	0;
	10132	583.2	-89.1176683	99999	-99999	1.02908	1014	1	891	583.2	0	0	0	0	0	0	0	0	0	0	0;
	10139	648	-210.341157	99999	-99999	1.03742	1143	1	990	648	0	0	0	0	0	0	0	0	0	0	0;
	10140	972	-197.987118	99999	-99999	1.03856	1705	1	1485	972	0	0	0	0	0	0	0	0	0	0	0;
	10141	1224	-436.390072	99999	-99999	1.01264	2125	1	1870	1224	0	0	0	0	0	0	0	0	0	0	0;
	10146	115.2	-176.436166	99999	-99999	1.04296	224	1	176	115.2	0	0	0	0	0	0	0	0	0	0	0;
	10150	201.6	11.7244811	99999	-99999	1.04015	427	1	308	201.6	0	0	0	0	0	0	0	0	0	0	0;
	10171	84.6	-9951.47511	99999	-99999	1.02955	715	1	129.3	84.6	0	0	0	0	0	0	0	0	0	0	0;
	10176	191	283.279669	99999	-99999	1.02979	346	1	291.8	191	0	0	0	0	0	0	0	0	0	0	0;
	10177	191	283.279669	99999	-99999	1.02979	346	1	291.8	191	0	0	0	0	0	0	0	0	0	0	0;
	10186	342.7	27.0593492	99999	-99999	1.08932	618	1	534.6	342.7	0	0	0	0	0	0	0	0	0	0	0;
	10187	342.7	27.2103981	99999	-99999	1.0894	618	1	534.6	342.7	0	0	0	0	0	0	0	0	0	0	0;
	10188	347.8	-76.3086955	99999	-99999	1.04594	618	1	531.3	347.8	0	0	0	0	0	0	0	0	0	0	0;
	10189	283	-60.8372049	99999	-99999	1.04556	620	1	542.3	283	0	0	0	0	0	0	0	0	0	0	0;
	10190	371.5	-13.8639719	99999	-99999	1.04288	683	1	600.6	371.5	0	0	0	0	0	0	0	0	0	0	0;
	10191	370.8	-14.0462655	99999	-99999	1.04288	682	1	599.5	370.8	0	0	0	0	0	0	0	0	0	0	0;
	10192	111.6	19.0794351	99999	-99999	1.04073	281	1	247.5	111.6	0	0	0	0	0	0	0	0	0	0	0;
	10194	64.8	-85.1575348	99999	-99999	1.03584	184	1	143	64.8	0	0	0	0	0	0	0	0	0	0	0;
	10196	108	-46.056091	99999	-99999	1.04091	215	1	165	108	0	0	0	0	0	0	0	0	0	0	0;
	10223	125.5	190.527783	99999	-99999	1.04073	189	1	125.5	0	0	0	0	0	0	0	0	0	0	0	0;
	10225	77.8	131.838411	99999	-99999	1.06248	333	1	272.8	77.8	0	0	0	0	0	0	0	0	0	0	0;
	10226	34.6	97.3402147	99999	-99999	1.06441	198	1	140.8	34.6	0	0	0	0	0	0	0	0	0	0	0;
	10227	11.5	71.8176538	99999	-99999	1.10423	191	1	17.6	11.5	0	0	0	0	0	0	0	0	0	0	0;
	10228	18.7	146.271593	99999	-99999	1.06247	135	1	28.6	18.7	0	0	0	0	0	0	0	0	0	0	0;
	10229	39.6	24.862757	99999	-99999	1.06902	85	1	60.5	39.6	0	0	0	0	0	0	0	0	0	0	0;
	10230	0	18.184025	99999	-99999	1.07323	132	1	0.1	0	0	0	0	0	0	0	0	0	0	0	0;
	10232	11.2	36.280922	99999	-99999	1.01987	64	1	17.2	11.2	0	0	0	0	0	0	0	0	0	0	0;
	10233	45.4	68.4862998	99999	-99999	1.04665	79	1	69.3	45.4	0	0	0	0	0	0	0	0	0	0	0;
	10234	3.6	205.710023	99999	-99999	1.09129	115	1	5.5	3.6	0	0	0	0	0	0	0	0	0	0	0;
	10235	28.8	18.1153803	99999	-99999	1.08091	83	1	44	28.8	0	0	0	0	0	0	0	0	0	0	0;
	10236	119.5	38.2785355	99999	-99999	1.07896	219	1	182.6	119.5	0	0	0	0	0	0	0	0	0	0	0;
	10237	50.4	132.108448	99999	-99999	1.08023	121	1	77	50.4	0	0	0	0	0	0	0	0	0	0	0;
	10238	61.9	122.325676	99999	-99999	1.00809	179	1	94.6	61.9	0	0	0	0	0	0	0	0	0	0	0;
	10239	62.6	39.6483841	99999	-99999	1.06246	109	1	95.7	62.6	0	0	0	0	0	0	0	0	0	0	0;
	10240	0	11.4280334	99999	-99999	1.0666	128	1	0.1	0	0	0	0	0	0	0	0	0	0	0	0;
	10246	146.2	-49.2846692	99999	-99999	1.03917	262	1	223.3	146.2	0	0	0	0	0	0	0	0	0	0	0;
	10247	102.2	-1.7005808	99999	-99999	1.12	215	1	156.2	102.2	0	0	0	0	0	0	0	0	0	0	0;
	10248	122.4	6.18576774	99999	-99999	1.12	241	1	187	122.4	0	0	0	0	0	0	0	0	0	0	0;
	10249	128	-23.9757626	99999	-99999	1.00179	225	1	195.6	128	0	0	0	0	0	0	0	0	0	0	0;
	10250	374.4	-1.02960151	99999	-99999	1.0404	650	1	572	374.4	0	0	0	0	0	0	0	0	0	0	0;
	10251	374.4	-2.4830724	99999	-99999	1.03995	650	1	572	374.4	0	0	0	0	0	0	0	0	0	0	0;
	10252	374.4	-2.44942179	99999	-99999	1.03994	650	1	572	374.4	0	0	0	0	0	0	0	0	0	0	0;
	10253	187.9	33.4789749	99999	-99999	1.01534	341	1	287.1	187.9	0	0	0	0	0	0	0	0	0	0	0;
	10254	342.7	30.708174	99999	-99999	1.04999	598	1	523.6	342.7	0	0	0	0	0	0	0	0	0	0	0;
	10255	121	5.43157978	99999	-99999	1.03994	210	1	184.8	121	0	0	0	0	0	0	0	0	0	0	0;
	10256	280.8	32.0943108	99999	-99999	1.11998	489	1	429	280.8	0	0	0	0	0	0	0	0	0	0	0;
	10257	140.4	16.6936366	99999	-99999	1.11817	250	1	214.5	140.4	0	0	0	0	0	0	0	0	0	0	0;
	10258	129.6	-2.77887022	99999	-99999	1.10518	230	1	198	129.6	0	0	0	0	0	0	0	0	0	0	0;
	10259	283.7	8.35036498	99999	-99999	0.98182	519	1	433.4	283.7	0	0	0	0	0	0	0	0	0	0	0;
	10260	425.5	9.82749371	99999	-99999	1.10941	741	1	650.1	425.5	0	0	0	0	0	0	0	0	0	0	0;
	10261	579.6	16.0751401	99999	-99999	0.99592	1100	1	951.5	579.6	0	0	0	0	0	0	0	0	0	0	0;
	10262	579.6	16.1576731	99999	-99999	0.99592	1100	1	951.5	579.6	0	0	0	0	0	0	0	0	0	0	0;
	10263	67.7	7.80606882	99999	-99999	1.09219	121	1	103.4	67.7	0	0	0	0	0	0	0	0	0	0	0;
	10264	280.8	-3.78353479	99999	-99999	1.00552	489	1	429	280.8	0	0	0	0	0	0	0	0	0	0	0;
	10265	280.8	-6.73883313	99999	-99999	1.10573	496	1	429	280.8	0	0	0	0	0	0	0	0	0	0	0;
	10266	3.6	-7.80670903	99999	-99999	1.04403	72	1	5.5	3.6	0	0	0	0	0	0	0	0	0	0	0;
	10267	4.3	43.282962	99999	-99999	1.08131	120	1	6.6	4.3	0	0	0	0	0	0	0	0	0	0	0;
	10268	20.9	15.8826397	99999	-99999	1.06395	37	1	31.9	20.9	0	0	0	0	0	0	0	0	0	0	0;
	10269	68.4	127.851024	99999	-99999	1.07428	338	1	291.5	68.4	0	0	0	0	0	0	0	0	0	0	0;
	10270	0	24.3910934	99999	-99999	1.05973	40	1	0.1	0	0	0	0	0	0	0	0	0	0	0	0;
	10271	156.2	71.5312981	99999	-99999	1.06494	286	1	238.7	156.2	0	0	0	0	0	0	0	0	0	0	0;
	10272	24.5	16.2458943	99999	-99999	1.072	116	1	37.4	24.5	0	0	0	0	0	0	0	0	0	0	0;
	10273	165.6	83.3081354	99999	-99999	1.02431	321	1	253	165.6	0	0	0	0	0	0	0	0	0	0	0;
	10274	61.2	118.36871	99999	-99999	1.06504	317	1	225.5	61.2	0	0	0	0	0	0	0	0	0	0	0;
	10275	21.6	5.45112487	99999	-99999	1.06182	125	1	110	21.6	0	0	0	0	0	0	0	0	0	0	0;
	10276	107.3	19.9071537	99999	-99999	1.06034	189	1	163.9	107.3	0	0	0	0	0	0	0	0	0	0	0;
	10277	80.6	59.7995129	99999	-99999	1.06264	225	1	123.2	80.6	0	0	0	0	0	0	0	0	0	0	0;
	10278	129.6	18.8097879	99999	-99999	1.11356	233	1	198	129.6	0	0	0	0	0	0	0	0	0	0	0;
	10279	129.6	18.8097879	99999	-99999	1.11356	233	1	198	129.6	0	0	0	0	0	0	0	0	0	0	0;
	10281	2.9	25.320141	99999	-99999	1.07868	20	1	4.4	2.9	0	0	0	0	0	0	0	0	0	0	0;
	10282	58.3	143.582324	99999	-99999	1.06767	357	1	287.1	58.3	0	0	0	0	0	0	0	0	0	0	0;
	10284	418.3	179.553008	99999	-99999	1.12	919	1	771.1	418.3	0	0	0	0	0	0	0	0	0	0	0;
	10285	0	-21.8543729	99999	-99999	1.0574	132	1	0.1	0	0	0	0	0	0	0	0	0	0	0	0;
	10288	20.9	-26.45472	99999	-99999	1.03369	63	1	31.9	20.9	0	0	0	0	0	0	0	0	0	0	0;
	10289	0.7	-25.1447081	99999	-99999	1.05256	41	1	34.1	0.7	0	0	0	0	0	0	0	0	0	0	0;
	10290	28.1	27.0892854	99999	-99999	1.06119	49	1	42.9	28.1	0	0	0	0	0	0	0	0	0	0	0;
	10291	5.8	48.9776021	99999	-99999	1.08362	71	1	8.8	5.8	0	0	0	0	0	0	0	0	0	0	0;
	10292	312.5	164.132206	99999	-99999	1.08678	638	1	477.4	312.5	0	0	0	0	0	0	0	0	0	0	0;
	10293	19.4	20.3270024	99999	-99999	1.07356	46	1	29.7	19.4	0	0	0	0	0	0	0	0	0	0	0;
	10294	7.9	33.2227474	99999	-99999	1.08819	74	1	12.1	7.9	0	0	0	0	0	0	0	0	0	0	0;
	10295	151.9	124.346933	99999	-99999	0.99474	299	1	232.1	151.9	0	0	0	0	0	0	0	0	0	0	0;
	10296	197.3	132.4005	99999	-99999	1.08634	461	1	301.4	197.3	0	0	0	0	0	0	0	0	0	0	0;
	24	110	90.3032198	140	-49	1.07767	235.3	1	221	110	0	0	0	0	0	0	0	0	0	0	0;
	25	135	-22.5169937	124	-22	1.0776	235.3	1	200	135	0	0	0	0	0	0	0	0	0	0	0;
	37	368.560642	75.2974707	190	-19	1.11	426	1	370	240	0	0	0	0	0	0	0	0	0	0	0;
	37	370	75.2974707	190	-19	1.11	426	1	370	240	0	0	0	0	0	0	0	0	0	0	0;
	38	370	18.097477	190	-19	1.11	426	1	370	240	0	0	0	0	0	0	0	0	0	0	0;
	38	370	18.097477	190	-19	1.11	426	1	370	240	0	0	0	0	0	0	0	0	0	0	0;
	39	370	94.7660967	190	-19	1.11	426	1	370	240	0	0	0	0	0	0	0	0	0	0	0;
	40	370	50.3344934	190	-19	1.04756	426	1	370	240	0	0	0	0	0	0	0	0	0	0	0;
	40	370	50.3344934	190	-19	1.04756	426	1	370	240	0	0	0	0	0	0	0	0	0	0	0;
	40	370	50.3344934	190	-19	1.04756	426	1	370	240	0	0	0	0	0	0	0	0	0	0	0;
	41	370	1.17166019	190	-19	1.04755	426	1	370	240	0	0	0	0	0	0	0	0	0	0	0;
	41	370	1.17166019	190	-19	1.04755	426	1	370	240	0	0	0	0	0	0	0	0	0	0	0;
	41	370	1.17166019	190	-19	1.04755	426	1	370	240	0	0	0	0	0	0	0	0	0	0	0;
	57	110	95.4485832	152	-33	1.10991	235	1	215	110	0	0	0	0	0	0	0	0	0	0	0;
	57	171.6	95.4485832	152	-33	1.10991	235	1	220	125	0	0	0	0	0	0	0	0	0	0	0;
	58	125	57.8945976	149	-33	1.1097	235	1	225	125	0	0	0	0	0	0	0	0	0	0	0;
	58	0	0	149	-33	1	235	0	225	120	0	0	0	0	0	0	0	0	0	0	0;
	58	110	57.8945976	149	-33	1.1097	235	1	225	110	0	0	0	0	0	0	0	0	0	0	0;
	59	225	148.226352	149	-33	1.11	235	1	225	110	0	0	0	0	0	0	0	0	0	0	0;
	60	535	314.80908	363	-47	1.05	588	1	535	255	0	0	0	0	0	0	0	0	0	0	0;
	61	278.8	-106.868512	348	-100	1.04992	588	1	560	250	0	0	0	0	0	0	0	0	0	0	0;
	70	129	-13.269847	105	-11	1.10739	235	1	225	129	0	0	0	0	0	0	0	0	0	0	0;
	71	129	61.2844384	105	-11	1.10739	235	1	225	129	0	0	0	0	0	0	0	0	0	0	0;
	71	0	0	99	-10	1	235	0	225	129	0	0	0	0	0	0	0	0	0	0	0;
	72	0	0	105	-11	1	235	0	225	129	0	0	0	0	0	0	0	0	0	0	0;
	72	129	-10.2345877	105	-11	1.04287	235	1	225	129	0	0	0	0	0	0	0	0	0	0	0;
	73	129	-10.3855448	99	-10	1.0429	235	1	225	129	0	0	0	0	0	0	0	0	0	0	0;
	73	129	-11.4103045	105	-11	1.0429	235	1	225	129	0	0	0	0	0	0	0	0	0	0	0;
	74	112	59.9933573	60	0	1.1043	120	1	112	0	0	0	0	0	0	0	0	0	0	0	0;
	94	220	114.105422	131	-6	1.10247	270.6	1	220	125	0	0	0	0	0	0	0	0	0	0	0;
	94	225	114.105422	131	-6	1.10247	270.6	1	225	140	0	0	0	0	0	0	0	0	0	0	0;
	95	225	85.8087951	131	-6	1.10442	270.6	1	225	130	0	0	0	0	0	0	0	0	0	0	0;
	95	225	85.8087951	131	-6	1.10442	270.6	1	225	125	0	0	0	0	0	0	0	0	0	0	0;
	95	225	85.8087951	131	-6	1.10442	270.6	1	225	130	0	0	0	0	0	0	0	0	0	0	0;
	98	383	19.8751061	213	-31	1.05	426	1	383	220	0	0	0	0	0	0	0	0	0	0	0;
	98	380	0.27567995	119	-31	1.05	435.3	1	380	220	0	0	0	0	0	0	0	0	0	0	0;
	115	12	0.00385503251	0	0	1.09646	12	1	12	0	0	0	0	0	0	0	0	0	0	0	0;
	115	6	0.00385503251	0	0	1.09646	6	1	6	0	0	0	0	0	0	0	0	0	0	0	0;
	121	0	0	120	-10	1	270.6	0	225	120	0	0	0	0	0	0	0	0	0	0	0;
	122	225	119.513962	120	-10	1.10922	270.6	1	225	120	0	0	0	0	0	0	0	0	0	0	0;
	123	120	6.81751255	73	-1	1.10624	150	1	120	70	0	0	0	0	0	0	0	0	0	0	0;
	124	120	71.4887023	73	-1	1.10639	150	1	120	70	0	0	0	0	0	0	0	0	0	0	0;
	134	0	0	80	0	1	150	0	120	70	0	0	0	0	0	0	0	0	0	0	0;
	135	120	80.125472	80	0	1.09923	150	1	120	70	0	0	0	0	0	0	0	0	0	0	0;
	136	80	31.0046199	31	0	1.07793	117.5	1	110	80	0	0	0	0	0	0	0	0	0	0	0;
	144	215	63.5176512	135	-35	1.10999	270.6	1	215	135	0	0	0	0	0	0	0	0	0	0	0;
	145	215	51.7205771	135	-35	1.11	270.6	1	215	135	0	0	0	0	0	0	0	0	0	0	0;
	145	225	54.2711823	140	-35	1.11	270.6	1	225	135	0	0	0	0	0	0	0	0	0	0	0;
	146	225	-34.7737749	140	-36	1.04293	270.6	1	225	135	0	0	0	0	0	0	0	0	0	0	0;
	146	220	-34.7946765	137	-36	1.04293	270.6	1	220	135	0	0	0	0	0	0	0	0	0	0	0;
	152	0	0	72	-29	1	150	0	135	-135	0	0	0	0	0	0	0	0	0	0	0;
	152	0	0	72	-29	1	150	0	135	-135	0	0	0	0	0	0	0	0	0	0	0;
	153	0	0	72	-29	1	150	0	135	-135	0	0	0	0	0	0	0	0	0	0	0;
	153	0	0	72	-29	1	150	0	135	-135	0	0	0	0	0	0	0	0	0	0	0;
	154	120	85.5604805	85	-15	1.0916	150	1	120	94	0	0	0	0	0	0	0	0	0	0	0;
	155	120	86.7198636	85	-15	1.0916	150	1	120	94	0	0	0	0	0	0	0	0	0	0	0;
	155	0	0	85	-15	1	150	0	120	94	0	0	0	0	0	0	0	0	0	0	0;
	169	0	0	25	0	1	51.4	0	50	40	0	0	0	0	0	0	0	0	0	0	0;
	170	0	0	90	-15	1	150	0	120	80	0	0	0	0	0	0	0	0	0	0	0;
	170	0	0	25	0	1	51.4	0	50	45	0	0	0	0	0	0	0	0	0	0	0;
	172	100	112.248276	119	-31	1.06808	252.4	1	232	100	0	0	0	0	0	0	0	0	0	0	0;
	172	0	0	111	-21	1	237.5	0	205	135	0	0	0	0	0	0	0	0	0	0	0;
	173	0	0	111	-21	1	237.5	0	205	135	0	0	0	0	0	0	0	0	0	0	0;
	173	0	0	102	-15	1	252.4	0	222	90	0	0	0	0	0	0	0	0	0	0	0;
	174	90	96.8490583	102	-15	1.03111	252.4	1	222	90	0	0	0	0	0	0	0	0	0	0	0;
	175	90	36.364213	102	-15	1.03109	252.4	1	222	90	0	0	0	0	0	0	0	0	0	0	0;
	175	100	35.2180679	93	-10	1.03109	252.4	1	232	100	0	0	0	0	0	0	0	0	0	0	0;
	180	261	97.7091561	127	-35	1.11	287.3	1	261	104	0	0	0	0	0	0	0	0	0	0	0;
	180	261	97.7091561	127	-35	1.11	287.3	1	261	104	0	0	0	0	0	0	0	0	0	0	0;
	181	206	101.368278	103	-17	1.11	238.4	1	206	120	0	0	0	0	0	0	0	0	0	0	0;
	181	261	124.797175	127	-35	1.11	287.3	1	261	104	0	0	0	0	0	0	0	0	0	0	0;
	182	235	13.1287929	145	-38	1.11	263.9	1	235	94	0	0	0	0	0	0	0	0	0	0	0;
	182	235	13.1287929	145	-38	1.11	263.9	1	235	94	0	0	0	0	0	0	0	0	0	0	0;
	183	206	105.659947	103	-17	1.04854	238.4	1	206	120	0	0	0	0	0	0	0	0	0	0	0;
	183	206	105.659947	103	-17	1.04854	238.4	1	206	120	0	0	0	0	0	0	0	0	0	0	0;
	191	200	104.010551	104	-23	1.08579	233.2	1	200	150	0	0	0	0	0	0	0	0	0	0	0;
	192	200	108.081747	104	-23	1.08551	233.2	1	200	150	0	0	0	0	0	0	0	0	0	0	0;
	192	0	0	104	-23	1	233.2	0	200	145	0	0	0	0	0	0	0	0	0	0	0;
	192	0	0	104	-23	1	233.2	0	200	145	0	0	0	0	0	0	0	0	0	0	0;
	193	464	294.007017	294	-259	1.03481	464	1	464	208	0	0	0	0	0	0	0	0	0	0	0;
	208	188	103.010341	100	0	1.06766	218.3	1	188	76	0	0	0	0	0	0	0	0	0	0	0;
	240	179	-59.8667963	105	-62	1.02448	209	1	179	-200	0	0	0	0	0	0	0	0	0	0	0;
	240	179	-59.8667963	105	-62	1.02448	209	1	179	-200	0	0	0	0	0	0	0	0	0	0	0;
	240	0	0	160	-100	1	209	0	179	-200	0	0	0	0	0	0	0	0	0	0	0;
	241	179	-15.7603231	160	-100	1.02448	209	1	179	-200	0	0	0	0	0	0	0	0	0	0	0;
	244	220	11.6662621	100	0	1.11	177.1	1	220	112.5	0	0	0	0	0	0	0	0	0	0	0;
	254	55	20.0701882	20	0	1.09551	78.8	1	55	23	0	0	0	0	0	0	0	0	0	0	0;
	254	43.5	20.0701882	20	0	1.09551	68.8	1	50	25	0	0	0	0	0	0	0	0	0	0	0;
	254	50	20.0701882	20	0	1.09551	68.8	1	50	25	0	0	0	0	0	0	0	0	0	0	0;
	254	23	20.0701882	20	0	1.09551	27.6	1	23	7	0	0	0	0	0	0	0	0	0	0	0;
	267	2.1	0.996650096	1	0	1.05867	0.7	1	2.1	0.5	0	0	0	0	0	0	0	0	0	0	0;
	268	2.1	1.02668666	1	0	1.07476	0.7	1	2.1	0.5	0	0	0	0	0	0	0	0	0	0	0;
	278	0	0	5	0	1	10.3	0	7.2	5.9	0	0	0	0	0	0	0	0	0	0	0;
	279	0	0	5	0	1	10.3	0	7.2	5.9	0	0	0	0	0	0	0	0	0	0	0;
	295	5	3.765413	3.75	0	1.08251	5	1	5	1	0	0	0	0	0	0	0	0	0	0	0;
	295	5	3.765413	3.75	0	1.08251	5	1	5	1	0	0	0	0	0	0	0	0	0	0	0;
	295	5	3.765413	3.75	0	1.08251	5	1	5	1	0	0	0	0	0	0	0	0	0	0	0;
	295	5	3.765413	3.75	0	1.08251	5	1	5	1	0	0	0	0	0	0	0	0	0	0	0;
	310	370	190.01886	190	-19	0.99995	426	1	370	240	0	0	0	0	0	0	0	0	0	0	0;
	316	0	0	2	0	1	4	0	5.7	1	0	0	0	0	0	0	0	0	0	0	0;
	316	0	0	2	0	1	4	0	5.7	1	0	0	0	0	0	0	0	0	0	0	0;
	376	6.6	5.07879738	5	0	1.09167	8.4	1	6.6	5.4	0	0	0	0	0	0	0	0	0	0	0;
	379	0.9	1.01026505	1	0	1.11164	0.9	1	0.9	0.3	0	0	0	0	0	0	0	0	0	0	0;
	379	0.9	1.01026505	1	0	1.11164	0.9	1	0.9	0.3	0	0	0	0	0	0	0	0	0	0	0;
	379	0.9	1.01026505	1	0	1.11164	0.9	1	0.9	0.3	0	0	0	0	0	0	0	0	0	0	0;
	383	27	7.03397411	7	0	1.11072	31.3	1	27	11	0	0	0	0	0	0	0	0	0	0	0;
...
];

%% branch data
%	fbus	tbus	r	x	b	rateA	rateB	rateC	ratio	angle	status	angmin	angmax	Pf	Qf	Pt	Qt
mpc.branch = [
	10330	10331	1e-05	8e-05	0	99999	19052	19052	0	0	1	-360	360	0.0000	0.0000	0.0000	0.0000;
	10300	10355	0.05932	0.20245	0	99999	19052	19052	0	0	1	-360	360	-6.4993	-4.2936	6.5323	4.4063;
	10300	10360	0.02058	0.05185	0	99999	19052	19052	0	0	1	-360	360	-27.5007	-8.7064	27.6578	9.1022;
	10367	10201	2e-05	-0.04958	0	99999	200	200	0.999	0	1	-360	360	-96.2476	6.6737	96.2493	-11.0865;
	10367	10202	6e-05	0.08346	0	99999	200	200	0.99999	0	1	-360	360	96.2476	-6.6737	-96.2422	14.1167;
	10366	10367	0.0026	0.25917	0	99999	200	200	0.99999	0	1	-360	360	0.0000	-0.0000	-0.0000	0.0000;
	10368	10215	2e-05	-0.04961	0	99999	200	200	0.999	0	1	-360	360	-145.1815	-20.2904	145.1854	10.7368;
	10368	10216	6e-05	0.08373	0	99999	200	200	0.99999	0	1	-360	360	145.1815	20.2904	-145.1700	-4.1342;
	10369	10368	0.0026	0.26125	0	99999	200	200	0.99999	0	1	-360	360	0.0000	0.0000	0.0000	0.0000;
	10090	10083	8e-05	0.00079	0.41456	99999	1247	1247	0	0	1	-360	360	-9.9097	-24.5805	9.9098	-20.3785;
	10138	10164	0.00168	0.01733	0.75504	99999	1746	1746	0	0	1	-360	360	-17.5405	-8.6051	17.5612	-71.5129;
	10139	10109	0.00071	0.00594	0.27872	99999	1386	1386	0	0	1	-360	360	331.6402	-139.4109	-330.8125	116.1924;
	10139	10144	0.00075	0.00681	0.312	99999	1386	1386	0	0	1	-360	360	353.5646	-29.1715	-352.6924	3.5604;
	10139	10153	0.00194	0.02	0.8336	99999	1386	1386	0	0	1	-360	360	106.7350	-20.7472	-106.5191	-66.1872;
	10140	10110	0.00071	0.00594	0.27872	99999	1386	1386	0	0	1	-360	360	384.3193	-135.6098	-383.2513	114.3505;
	10140	10143	0.00075	0.00681	0.312	99999	1386	1386	0	0	1	-360	360	488.1440	-22.7555	-486.4869	4.2352;
	10140	10153	0.00194	0.02	0.8336	99999	1386	1386	0	0	1	-360	360	152.2389	-18.2304	-151.8092	-66.5978;
	10141	10153	0.00233	0.01696	0.70784	99999	1746	1746	0	0	1	-360	360	114.8658	-160.1179	-114.2176	90.9254;
	10090	10085	0.00017	0.00148	1.23008	99999	1247	1247	0	0	1	-360	360	-61.3357	-49.3139	61.3421	-84.0132;
	10141	10158	0.00204	0.01707	0.71344	99999	1746	1746	0	0	1	-360	360	138.5225	-58.0527	-138.1316	-11.9154;
	10141	10158	0.00204	0.01707	0.71344	99999	1746	1746	0	0	1	-360	360	138.5225	-58.0527	-138.1316	-11.9154;
	10143	10144	1e-05	6e-05	0	99999	1732	1732	0	0	1	-360	360	-38.7084	-26.6499	38.7086	26.6511;
	10143	10153	0.00169	0.01381	0.6496	99999	1386	1386	0	0	1	-360	360	-18.2945	4.5285	18.3242	-73.6642;
	10143	10156	0.00119	0.00969	0.4544	99999	1386	1386	0	0	1	-360	360	419.6461	-12.4376	-417.6917	-20.1671;
	10144	10126	0.00306	0.02537	1.19168	99999	1386	1386	0	0	1	-360	360	48.1941	44.3945	-47.7932	-165.5580;
	10144	10153	0.00169	0.01381	0.6496	99999	1386	1386	0	0	1	-360	360	-18.1316	4.6514	18.1613	-73.7879;
	10144	10165	0.00244	0.02044	0.9584	99999	831	831	0	0	1	-360	360	250.9058	-61.6147	-249.4721	-28.9598;
	10091	10090	9e-05	0.00106	1.10432	99999	1247	1247	0	0	1	-360	360	-103.6120	-105.9424	103.6227	-13.6301;
	10145	10147	0.00194	0.01606	0.75456	99999	1787	1787	0	0	1	-360	360	170.9162	-188.3987	-169.9338	117.9068;
	10145	10158	0.00189	0.01232	0.61088	99999	1746	1746	0	0	1	-360	360	-117.9178	-41.0882	118.1771	-19.7833;
	10171	10094	0	6e-05	0	99999	1593	1593	0	0	1	-360	360	142.4503	-9797.8785	-142.4503	9852.2300;
	10145	10082	0.00091	0.00923	0.39197	99999	1642	1642	0	0	1	-360	360	140.4902	38.9040	-140.2832	-76.5491;
	10145	10082	0.00091	0.00923	0.39197	99999	1642	1642	0	0	1	-360	360	140.4902	38.9040	-140.2832	-76.5491;
	10146	10154	0.00503	0.01845	0.05812	99999	408	408	0	0	1	-360	360	80.3133	14.8692	-80.0000	-20.0000;
	10172	10095	0	6e-05	0	99999	1386	1386	0	0	1	-360	360	-139.5981	43.4481	139.5981	-43.4360;
	10147	10153	0.00156	0.01288	0.6032	99999	1386	1386	0	0	1	-360	360	-366.2082	22.6765	368.2195	-70.2000;
	10173	10095	0	6e-05	0	99999	1386	1386	0	0	1	-360	360	-139.5981	43.4481	139.5981	-43.4360;
	10147	10153	0.00156	0.01288	0.6032	99999	1386	1386	0	0	1	-360	360	-366.2082	22.6765	368.2195	-70.2000;
	10174	10096	2e-05	0.00016	0.0008	99999	1386	1386	0	0	1	-360	360	-292.5171	-383.0847	292.5617	383.3581;
	10147	10161	0.00113	0.00962	0.4528	99999	1787	1787	0	0	1	-360	360	-121.3779	102.0951	121.7036	-146.9921;
	10176	10098	0.00029	0.00219	0.11056	99999	1386	1386	0	0	1	-360	360	546.2559	106.8821	-545.4052	-112.1379;
	10177	10098	0.00029	0.00219	0.11056	99999	1386	1386	0	0	1	-360	360	546.2559	106.8821	-545.4052	-112.1379;
	10147	10169	0.00041	0.00423	0.18496	99999	1386	1386	0	0	1	-360	360	-158.4791	50.9209	158.5902	-69.4089;
	10147	10170	0.00041	0.00423	0.18496	99999	1386	1386	0	0	1	-360	360	-158.4791	50.9209	158.5902	-69.4089;
	10091	10090	9e-05	0.00106	1.10432	99999	1247	1247	0	0	1	-360	360	-103.6120	-105.9424	103.6227	-13.6301;
	10147	10037	0.00105	0.00925	0.37437	99999	1386	1386	0	0	1	-360	360	554.9127	-181.1057	-551.6156	169.9490;
	10147	10037	0.00105	0.00925	0.37437	99999	1386	1386	0	0	1	-360	360	554.9127	-181.1057	-551.6156	169.9490;
	10148	10136	0.00293	0.01074	0.03436	99999	408	408	0	0	1	-360	360	62.9305	0.3493	-62.8297	-3.9321;
	10148	10149	2e-05	0.0001	0	99999	762	762	0	0	1	-360	360	59.5317	8.5995	-59.5310	-8.5964;
	10149	10136	0.00293	0.01074	0.03436	99999	408	408	0	0	1	-360	360	62.3800	0.3052	-62.2810	-3.8944;
	10149	10162	0.01595	0.06457	0.17037	99999	301	301	0	0	1	-360	360	55.8062	0.8979	-55.3592	-18.4618;
	10151	10147	0.00188	0.01925	0.8432	99999	1386	1386	0	0	1	-360	360	221.0363	-7.8868	-220.1646	-73.7456;
	10152	10164	0.00364	0.03742	1.6384	99999	1746	1746	0	0	1	-360	360	191.2355	-52.8239	-189.9749	-110.6847;
	10156	10165	0.00131	0.011	0.5168	99999	831	831	0	0	1	-360	360	94.5255	-61.7574	-94.4008	7.7659;
	10158	10081	0.00127	0.0132	0.5505	99999	1746	1746	0	0	1	-360	360	-299.3031	-153.6317	300.6043	109.4123;
	10091	10164	0.0023	0.02084	0.8752	99999	1746	1746	0	0	1	-360	360	-33.5069	15.7704	33.6154	-108.5236;
	10159	10163	0.00517	0.03967	0.12439	99999	457	457	0	0	1	-360	360	140.4774	20.4072	-139.6163	-28.9135;
	10159	10163	0.00517	0.03967	0.12439	99999	457	457	0	0	1	-360	360	140.4774	20.4072	-139.6163	-28.9135;
	10160	10137	0.0099	0.03659	0.11674	99999	343	343	0	0	1	-360	360	-37.9758	74.5412	38.6775	-84.8720;
	10161	10145	0.00088	0.007	0.3296	99999	1787	1787	0	0	1	-360	360	-222.7377	167.8157	223.4456	-196.1784;
	10162	10122	0.00527	0.0193	0.06156	99999	408	408	0	0	1	-360	360	95.0801	20.9245	-94.6276	-26.1150;
	10162	10122	0.00527	0.0193	0.06156	99999	408	408	0	0	1	-360	360	95.0801	20.9245	-94.6276	-26.1150;
	10164	10165	0.00323	0.03369	1.40518	99999	1746	1746	0	0	1	-360	360	51.1325	-91.9325	-51.0433	-56.5310;
	10164	10080	6e-05	0.00059	0.02467	99999	1746	1746	0	0	1	-360	360	-128.0598	82.0438	128.0730	-84.5246;
	10092	10089	0.00046	0.00474	0.01943	99999	960	960	0	0	1	-360	360	-41.9742	-34.4240	41.9854	32.2471;
	10164	10080	6e-05	0.00059	0.02467	99999	1746	1746	0	0	1	-360	360	-128.0598	82.0438	128.0730	-84.5246;
	10165	10091	0.00067	0.00696	0.2904	99999	1746	1746	0	0	1	-360	360	-146.3362	-113.5231	146.5309	84.3144;
	10167	10169	8e-05	0.00067	0.02976	99999	1884	1884	0	0	1	-360	360	-132.7750	-38.5698	132.7893	35.5377;
	10168	10170	8e-05	0.00067	0.02976	99999	1884	1884	0	0	1	-360	360	-132.7750	-38.5698	132.7893	35.5377;
	10310	10311	8e-05	0.00041	0	99999	111	111	0	0	1	-360	360	0.0000	0.0000	0.0000	0.0000;
	10330	10359	0.01322	0.04793	0.0092	99999	204	204	0	0	1	-360	360	-133.5000	-25.5000	135.8265	32.9414;
	10331	10359	0.01322	0.04793	0.0092	99999	204	204	0	0	1	-360	360	-133.5000	-25.5000	135.8265	32.9414;
	10092	10157	0.00627	0.02339	0.07357	99999	343	343	0	0	1	-360	360	-15.6000	-7.6187	15.6136	-1.0105;
	10346	10347	8e-05	0.00041	0	99999	150	150	0	0	1	-360	360	0.0000	0.0000	0.0000	0.0000;
	10359	10310	0.02975	0.10992	0.0219	99999	204	204	0	0	1	-360	360	28.7294	4.4438	-28.5000	-6.0000;
	10359	10311	0.02975	0.10992	0.0219	99999	204	204	0	0	1	-360	360	28.7294	4.4438	-28.5000	-6.0000;
	10359	10346	0.01157	0.04298	0.00859	99999	183	183	0	0	1	-360	360	67.9882	7.8681	-67.5000	-7.0000;
	10359	10347	0.01157	0.04298	0.00859	99999	183	183	0	0	1	-360	360	67.9882	7.8681	-67.5000	-7.0000;
	10301	10319	0.01298	0.09959	0.01949	99999	229	229	0	0	1	-360	360	0.1417	17.0350	-0.1049	-18.9845;
	10301	10319	0.01298	0.09959	0.01949	99999	229	229	0	0	1	-360	360	0.1417	17.0350	-0.1049	-18.9845;
	10301	10327	0.03223	0.16033	0.03037	99999	229	229	0	0	1	-360	360	54.0350	26.7949	-53.0000	-25.0000;
	10093	10088	0.00046	0.00474	0.01943	99999	960	960	0	0	1	-360	360	-32.5825	-25.9433	32.5890	23.7078;
	10301	10327	0.03223	0.16033	0.03037	99999	229	229	0	0	1	-360	360	54.0350	26.7949	-53.0000	-25.0000;
	10313	10314	1e-05	0.00041	0	99999	381	381	0	0	1	-360	360	-7.5954	-1.4219	7.5954	1.4222;
	10315	10316	1e-05	0.00041	0	99999	191	191	0	0	1	-360	360	3.3974	39.3640	-3.3973	-39.3587;
	10315	10317	1e-05	0.00041	0	99999	191	191	0	0	1	-360	360	-6.7979	-78.9564	6.7984	78.9779;
	10339	10313	0.00012	0.00118	0.00028	99999	389	389	0	0	1	-360	360	-7.5953	-1.4518	7.5954	1.4219;
	10339	10340	1e-05	0.00041	0	99999	381	381	0	0	1	-360	360	-41.2422	-10.5288	41.2423	10.5356;
	10340	10314	7e-05	0.00066	0.00016	99999	389	389	0	0	1	-360	360	7.5954	1.4051	-7.5954	-1.4222;
	10354	10353	1e-05	0.00041	0	99999	381	381	0	0	1	-360	360	0.0000	0.0000	0.0000	0.0000;
	10303	10304	8e-05	0.00041	0	99999	229	229	0	0	1	-360	360	0.0000	0.0000	0.0000	0.0000;
	10093	10157	0.0064	0.02314	0.07299	99999	343	343	0	0	1	-360	360	-0.6012	0.7452	0.6026	-9.3724;
	10322	10323	8e-05	0.00041	0	99999	114	114	0	0	1	-360	360	0.0000	0.0000	0.0000	0.0000;
	10099	10115	0.00014	0.00127	0.0568	99999	1746	1746	0	0	1	-360	360	-280.6193	224.2497	280.8000	-228.3310;
	10084	10087	7e-05	0.00077	0.4808	99999	1351	1351	0	0	1	-360	360	-307.5353	-135.0476	307.6038	83.5196;
	10099	10116	0.00014	0.00127	0.0568	99999	1746	1746	0	0	1	-360	360	-280.6193	224.2497	280.8000	-228.3310;
	10099	10145	0.00091	0.00842	0.37584	99999	1386	1386	0	0	1	-360	360	268.8517	-109.5052	-268.1263	78.0647;
	10099	10145	0.00091	0.00842	0.37584	99999	1386	1386	0	0	1	-360	360	268.8517	-109.5052	-268.1263	78.0647;
	10099	10158	0.00115	0.01064	0.47546	99999	1884	1884	0	0	1	-360	360	77.2486	-116.3435	-77.0835	69.4374;
	10099	10158	0.00115	0.01064	0.47546	99999	1884	1884	0	0	1	-360	360	77.2486	-116.3435	-77.0835	69.4374;
	10099	10079	0.00206	0.01905	0.85158	99999	1884	1884	0	0	1	-360	360	-222.7135	-58.5233	223.7304	-18.7718;
	10099	10079	0.00206	0.01905	0.85158	99999	1884	1884	0	0	1	-360	360	-222.7135	-58.5233	223.7304	-18.7718;
	10100	10118	0.00034	0.00354	0.1544	99999	1732	1732	0	0	1	-360	360	-195.8631	4.0286	195.9840	-19.4970;
	10100	10118	0.00034	0.00354	0.1544	99999	1732	1732	0	0	1	-360	360	-195.8631	4.0286	195.9840	-19.4970;
	10100	10151	0.00075	0.00744	0.3264	99999	1386	1386	0	0	1	-360	360	581.8134	-74.1256	-579.4473	62.2202;
	10084	10087	7e-05	0.00076	0.51264	99999	1351	1351	0	0	1	-360	360	-311.6786	-137.8287	311.7490	82.8482;
	10100	10151	0.00075	0.00744	0.3264	99999	1386	1386	0	0	1	-360	360	581.8134	-74.1256	-579.4473	62.2202;
	10100	10153	0.00144	0.01506	0.6592	99999	1386	1386	0	0	1	-360	360	247.6497	12.1993	-246.8039	-74.0856;
	10100	10153	0.00144	0.01506	0.6592	99999	1386	1386	0	0	1	-360	360	247.6497	12.1993	-246.8039	-74.0856;
	10101	10135	0.01399	0.05116	0.16408	99999	343	343	0	0	1	-360	360	-252.1565	57.7772	260.9305	-43.6531;
	10101	10137	0.0049	0.01791	0.0574	99999	343	343	0	0	1	-360	360	252.1565	-57.7772	-249.1492	62.5515;
	10102	10166	0.00909	0.03285	0.10503	99999	343	343	0	0	1	-360	360	-60.0000	-12.5000	60.2932	1.6133;
	10102	10166	0.00909	0.03285	0.10503	99999	343	343	0	0	1	-360	360	-60.0000	-12.5000	60.2932	1.6133;
	10103	10104	0.00125	0.00625	0	99999	1386	1386	0	0	1	-360	360	-338.4753	-1.4870	339.8000	8.1107;
	10103	10120	0.00061	0.00564	0.252	99999	1884	1884	0	0	1	-360	360	162.2307	-31.5445	-162.0803	5.6905;
	10103	10120	0.00061	0.00564	0.252	99999	1884	1884	0	0	1	-360	360	162.2307	-31.5445	-162.0803	5.6905;
	10085	10084	8e-05	0.00095	0.58816	99999	1351	1351	0	0	1	-360	360	-306.5562	-119.3800	306.6312	56.4394;
	10103	10150	0.00013	0.00119	0.05328	99999	1884	1884	0	0	1	-360	360	-201.5509	-17.0372	201.6000	11.7245;
	10105	10148	0.00492	0.01798	0.05731	99999	408	408	0	0	1	-360	360	-80.7716	-33.5795	81.0947	28.2110;
	10105	10149	0.00492	0.01798	0.05731	99999	408	408	0	0	1	-360	360	-80.4459	-33.5592	80.7667	28.1822;
	10106	10147	0.00131	0.01339	0.58672	99999	1386	1386	0	0	1	-360	360	122.3528	-17.9297	-122.1673	-42.7589;
	10106	10151	0.00056	0.00584	0.25616	99999	1386	1386	0	0	1	-360	360	-445.8212	-90.2367	446.8921	73.8096;
	10107	10109	0.00014	0.00127	0.0568	99999	1386	1386	0	0	1	-360	360	-112.5875	12.6938	112.6042	-18.7156;
	10108	10110	0.00014	0.00127	0.0568	99999	1386	1386	0	0	1	-360	360	-119.7954	11.4608	119.8141	-17.4708;
	10111	10158	0.00118	0.01186	0.50192	99999	1746	1746	0	0	1	-360	360	187.3785	65.0459	-186.8914	-112.3723;
	10111	10081	0.00051	0.00528	0.22019	99999	1746	1746	0	0	1	-360	360	-330.5726	-137.1158	331.1780	120.0064;
	10112	10159	0.00153	0.00561	0.01801	99999	408	408	0	0	1	-360	360	-58.7089	-22.7579	58.7577	20.7217;
	10085	10086	0	6e-05	0	99999	2079	2079	0	0	1	-360	360	83.6141	19.7931	-83.6141	-19.7891;
	10112	10159	0.00109	0.004	0.01284	99999	408	408	0	0	1	-360	360	-82.3376	-31.1748	82.4060	29.8464;
	10112	10159	0.00109	0.004	0.01284	99999	408	408	0	0	1	-360	360	-82.3376	-31.1748	82.4060	29.8464;
	10113	10141	0.00031	0.00286	0.12781	99999	1884	1884	0	0	1	-360	360	-536.7669	248.1871	537.8229	-251.6208;
	10113	10153	0.00037	0.00343	0.15334	99999	1884	1884	0	0	1	-360	360	133.5671	-405.6888	-132.9386	395.4194;
	10114	10127	0.01116	0.04091	0.13068	99999	366	366	0	0	1	-360	360	8.6281	-24.8200	-8.5939	9.3241;
	10183	10198	0.00084	0.01065	0.39616	99999	831	831	0	0	1	-360	360	71.8227	-7.9192	-71.7819	-35.0419;
	10183	10217	0.00146	0.01809	0.63888	99999	831	831	0	0	1	-360	360	189.3271	-55.4818	-188.8457	-8.8956;
	10184	10199	0.01019	0.06849	0.1012	99999	326	326	0	0	1	-360	360	-127.0323	-29.3310	128.5738	28.1867;
	10184	10209	0.01204	0.06105	0.08659	99999	274	274	0	0	1	-360	360	19.3573	-18.1348	-19.2970	8.8296;
	10184	10216	0.01029	0.0401	0.10522	99999	274	274	0	0	1	-360	360	37.6750	-1.5341	-37.5410	-9.5026;
	10185	10205	0.00065	0.00657	0.2224	99999	831	831	0	0	1	-360	360	0.0000	0.0000	0.0009	-24.4644;
	10186	10199	0.00155	0.01508	0.02396	99999	535	535	0	0	1	-360	360	342.7000	27.0593	-341.1553	-14.8540;
	10187	10200	0.00156	0.01518	0.02415	99999	535	535	0	0	1	-360	360	342.7000	27.2104	-341.1455	-14.9290;
	10188	10183	0.00057	0.00724	0.26592	99999	831	831	0	0	1	-360	360	347.8000	-76.3087	-347.1499	55.4010;
	10189	10198	0.00028	0.00346	0.1312	99999	831	831	0	0	1	-360	360	272.8000	-60.8372	-272.6020	48.9261;
	10192	10193	0	0.0001	0	99999	762	762	0	0	1	-360	360	43.6883	4.3683	-43.6883	-4.3665;
	10192	10222	0.00488	0.0332	0.05542	99999	346	346	0	0	1	-360	360	67.9117	14.7111	-67.6898	-19.1544;
	10196	10208	0.00059	0.00752	0.26672	99999	1386	1386	0	0	1	-360	360	-123.4064	-70.0008	123.5061	42.2409;
	10197	10215	0.00092	0.01193	0.47104	99999	1109	1109	0	0	1	-360	360	39.5087	-73.1885	-39.4765	22.0164;
	10198	10208	0.00081	0.00867	0.27808	99999	831	831	0	0	1	-360	360	293.4076	-27.2863	-292.7700	3.6772;
	10199	10200	0	0.0001	0	99999	762	762	0	0	1	-360	360	-341.1455	-14.8294	341.1455	14.9290;
	10199	10211	0.00752	0.04678	0.06534	99999	323	323	0	0	1	-360	360	187.3365	6.5076	-185.0734	0.0295;
	10201	10213	0.00112	0.01179	0.35472	99999	738	738	0	0	1	-360	360	221.9634	-110.9192	-221.3499	79.6557;
	10201	10220	0.00156	0.01658	0.4112	99999	738	738	0	0	1	-360	360	-160.5551	-64.3455	160.9633	24.9080;
	10202	10193	0.01	0.06793	0.1134	99999	274	274	0	0	1	-360	360	-43.5019	-15.2572	43.6883	4.3665;
	10202	10203	0	0.0001	0	99999	762	762	0	0	1	-360	360	0.0000	0.0000	0.0000	0.0000;
	10202	10206	0.03436	0.16971	0.24563	99999	271	271	0	0	1	-360	360	54.4160	-20.6696	-53.4381	-0.5253;
	10202	10222	0.00595	0.04035	0.06732	99999	274	274	0	0	1	-360	360	-17.6719	-6.1899	17.6898	-0.8456;
	10204	10210	0.00214	0.02232	0.71616	99999	831	831	0	0	1	-360	360	130.0471	-71.2830	-129.6922	-2.9435;
	10205	10213	0.00154	0.01628	0.52272	99999	831	831	0	0	1	-360	360	-32.2270	59.1917	32.3499	-114.6557;
	10205	10215	0.00078	0.00855	0.2736	99999	1109	1109	0	0	1	-360	360	-44.0780	-16.4981	44.0918	-13.4492;
	10205	10217	0.00108	0.01152	0.352	99999	1109	1109	0	0	1	-360	360	-77.6959	-24.2292	77.7554	-13.8931;
	10206	10216	0.01105	0.05364	0.07957	99999	271	271	0	0	1	-360	360	-96.5619	-14.4747	97.5467	10.6971;
	10207	10210	0.00185	0.01772	0.57632	99999	831	831	0	0	1	-360	360	74.4065	-47.9971	-74.3078	-13.9565;
	10207	10220	0.00156	0.01757	0.552	99999	831	831	0	0	1	-360	360	-187.4065	32.9971	187.9662	-86.4269;
	10208	10214	0.00058	0.0082	0.28864	99999	831	831	0	0	1	-360	360	104.2639	-56.9181	-104.1972	26.2193;
	10212	10216	0.00504	0.0312	0.05087	99999	137	137	0	0	1	-360	360	-41.5000	-9.5000	41.5821	4.4699;
	10212	10216	0.00504	0.0312	0.05087	99999	137	137	0	0	1	-360	360	-41.5000	-9.5000	41.5821	4.4699;
	10215	10217	0.00033	0.00346	0.1112	99999	1386	1386	0	0	1	-360	360	-149.8006	-19.3040	149.8685	7.7660;
	10218	10190	0.0001	0.00123	0.04912	99999	831	831	0	0	1	-360	360	-371.3730	10.0850	371.5000	-13.8640;
	10218	10197	0.00086	0.01148	0.4	99999	1386	1386	0	0	1	-360	360	335.4063	-52.8480	-334.5087	21.2885;
	10218	10204	0.00026	0.00286	0.08848	99999	866	866	0	0	1	-360	360	159.9605	49.0392	-159.8924	-57.8917;
	10218	10219	0	6e-05	0	99999	1386	1386	0	0	1	-360	360	-123.9938	-6.2762	123.9938	6.2847;
	10219	10191	0.0001	0.00124	0.04976	99999	831	831	0	0	1	-360	360	-370.6735	10.2045	370.8000	-14.0463;
	10219	10198	0.00104	0.01237	0.37936	99999	1109	1109	0	0	1	-360	360	95.4795	-61.6153	-95.3762	21.4437;
	10219	10204	0.00026	0.00307	0.1088	99999	866	866	0	0	1	-360	360	151.2002	45.1260	-151.1393	-56.2139;
	10220	10194	9e-05	0.00101	0.03168	99999	499	499	0	0	1	-360	360	-64.7906	81.8610	64.8000	-85.1575;
	10220	10195	9e-05	0.00097	0.03072	99999	499	499	0	0	1	-360	360	0.0000	-3.3010	0.0000	0.0000;
	10114	10128	0.01116	0.04091	0.13068	99999	366	366	0	0	1	-360	360	8.6281	-24.8200	-8.5939	9.3241;
	10180	10064	0.01085	0.05289	0.08301	99999	269	269	0	0	1	-360	360	-8.3367	41.8394	8.5435	-50.4548;
	10181	10064	0.01085	0.05289	0.08301	99999	269	269	0	0	1	-360	360	-8.3367	41.8394	8.5435	-50.4548;
	10182	10063	0.00065	0.00924	0.276	99999	1386	1386	0	0	1	-360	360	-96.0328	39.3781	96.1048	-68.6608;
	10178	10204	0.00078	0.00875	0.13616	99999	1330	1330	0	0	1	-360	360	-10.7999	-164.8765	10.9845	152.3886;
	10114	10148	0.00864	0.03777	0.0848	99999	301	301	0	0	1	-360	360	22.5396	39.1757	-22.3607	-48.3224;
	10179	10196	0.00036	0.00429	0.1168	99999	1330	1330	0	0	1	-360	360	-231.2254	-34.4191	231.4064	23.9447;
	10039	10078	0.00101	0.01281	0.6424	99999	1386	1386	0	0	1	-360	360	4.9263	24.4055	-4.8934	-93.2177;
	10039	10038	0.00106	0.01368	0.5168	99999	1386	1386	0	0	1	-360	360	-4.9263	-24.4055	4.9267	-31.6544;
	10043	10209	0.00839	0.04277	0.06002	99999	274	274	0	0	1	-360	360	40.8456	12.7979	-40.7030	-18.8296;
	10043	10044	0.00839	0.04277	0.06026	99999	269	269	0	0	1	-360	360	-40.8456	-12.7979	40.9753	6.5661;
	10049	10217	0.00075	0.0072	0.21824	99999	1386	1386	0	0	1	-360	360	126.8941	-41.9438	-126.7782	19.0227;
	10049	10048	0.00068	0.00728	0.2176	99999	1386	1386	0	0	1	-360	360	-126.8941	41.9438	127.0116	-64.5562;
	10057	10078	0.00067	0.00819	0.47648	99999	1663	1663	0	0	1	-360	360	-210.1518	58.5470	210.4697	-105.9021;
	10057	10056	0.00075	0.0091	0.356	99999	1732	1732	0	0	1	-360	360	210.1518	-58.5470	-209.8346	23.8444;
	10114	10155	0.0045	0.01649	0.05256	99999	301	301	0	0	1	-360	360	62.2815	37.5110	-62.0722	-42.9459;
	10066	10198	0.00118	0.01209	0.3728	99999	1323	1323	0	0	1	-360	360	-204.2620	20.3139	204.7274	-56.4670;
	10066	10065	0.00118	0.01209	0.3728	99999	1386	1386	0	0	1	-360	360	204.2620	-20.3139	-203.8144	-16.0253;
	10067	10211	0.00627	0.04117	0.06002	99999	326	326	0	0	1	-360	360	-42.9681	4.7835	43.0734	-10.9295;
	10067	10064	0.00627	0.04117	0.05808	99999	318	318	0	0	1	-360	360	42.9681	-4.7835	-42.8664	-1.1567;
	10068	10214	0.00069	0.0089	0.32384	99999	831	831	0	0	1	-360	360	-87.1482	-2.7616	87.1972	-32.2193;
	10068	10065	0.00069	0.0089	0.324	99999	866	866	0	0	1	-360	360	87.1482	2.7616	-87.0979	-37.6893;
	10221	10220	0.00053	0.00544	0.06784	99999	831	831	0	0	1	-360	360	284.5380	13.8319	-284.1389	-17.0411;
	10221	10223	0.00052	0.00544	0.136	99999	1247	1247	0	0	1	-360	360	-284.5380	-13.8319	284.9283	3.2111;
...
];

%%-----  OPF Data  -----%%
%% generator cost data
%	1	startup	shutdown	n	x1	y1	...	xn	yn
%	2	startup	shutdown	n	c(n-1)	...	c0
mpc.gencost = [
	2	0	0	3	0	198.86	0;
	2	0	0	3	0	240.26	0;
	2	0	0	3	0	240.26	0;
	2	0	0	3	0	240.26	0;
	2	0	0	3	0	240.26	0;
	2	0	0	3	0	240.26	0;
	2	0	0	3	0	240.26	0;
	2	0	0	3	0	240.26	0;
	2	0	0	3	0	240.26	0;
	2	0	0	3	0	240.26	0;
	2	0	0	3	0	240.26	0;
	2	0	0	3	0	240.26	0;
	2	0	0	3	0	240.26	0;
	2	0	0	3	0	240.26	0;
	2	0	0	3	0	240.26	0;
	2	0	0	3	0	240.26	0;
	2	0	0	3	0	240.26	0;
	2	0	0	3	0	240.26	0;
	2	0	0	3	0	240.26	0;
	2	0	0	3	0	240.26	0;
	2	0	0	3	0	240.26	0;
	2	0	0	3	0	240.26	0;
	2	0	0	3	0	236.7	0;
	2	0	0	3	0	236.7	0;
	2	0	0	3	0	236.7	0;
	2	0	0	3	0	236.7	0;
	2	0	0	3	0	236.7	0;
	2	0	0	3	0	236.7	0;
	2	0	0	3	0	236.7	0;
	2	0	0	3	0	236.7	0;
	2	0	0	3	0	236.7	0;
	2	0	0	3	0	100	0;
	2	0	0	3	0	198.86	0;
	2	0	0	3	0	198.86	0;
	2	0	0	3	0	198.86	0;
	2	0	0	3	0	198.86	0;
	2	0	0	3	0	198.86	0;
	2	0	0	3	0	198.86	0;
	2	0	0	3	0	198.86	0;
	2	0	0	3	0	198.86	0;
	2	0	0	3	0	198.86	0;
	2	0	0	3	0	198.86	0;
	2	0	0	3	0	198.86	0;
	2	0	0	3	0	198.86	0;
	2	0	0	3	0	198.86	0;
	2	0	0	3	0	198.86	0;
	2	0	0	3	0	198.86	0;
	2	0	0	3	0	198.86	0;
	2	0	0	3	0	198.86	0;
	2	0	0	3	0	198.86	0;
	2	0	0	3	0	198.86	0;
	2	0	0	3	0	198.86	0;
	2	0	0	3	0	198.86	0;
	2	0	0	3	0	198.86	0;
	2	0	0	3	0	198.86	0;
	2	0	0	3	0	198.86	0;
	2	0	0	3	0	198.86	0;
	2	0	0	3	0	198.86	0;
	2	0	0	3	0	198.86	0;
	2	0	0	3	0	198.86	0;
	2	0	0	3	0	198.86	0;
	2	0	0	3	0	198.86	0;
	2	0	0	3	0	198.86	0;
	2	0	0	3	0	198.86	0;
	2	0	0	3	0	198.86	0;
	2	0	0	3	0	198.86	0;
	2	0	0	3	0	198.86	0;
	2	0	0	3	0	198.86	0;
	2	0	0	3	0	198.86	0;
	2	0	0	3	0	198.86	0;
	2	0	0	3	0	198.86	0;
	2	0	0	3	0	198.86	0;
	2	0	0	3	0	198.86	0;
	2	0	0	3	0	198.86	0;
	2	0	0	3	0	198.86	0;
	2	0	0	3	0	198.86	0;
	2	0	0	3	0	198.86	0;
	2	0	0	3	0	198.86	0;
	2	0	0	3	0	198.86	0;
	2	0	0	3	0	198.86	0;
	2	0	0	3	0	198.86	0;
	2	0	0	3	0	198.86	0;
	2	0	0	3	0	198.86	0;
	2	0	0	3	0	198.86	0;
	2	0	0	3	0	198.86	0;
	2	0	0	3	0	198.86	0;
	2	0	0	3	0	198.86	0;
	2	0	0	3	0	198.86	0;
	2	0	0	3	0	198.86	0;
	2	0	0	3	0	198.86	0;
	2	0	0	3	0	198.86	0;
	2	0	0	3	0	198.86	0;
	2	0	0	3	0	198.86	0;
	2	0	0	3	0	198.86	0;
	2	0	0	3	0	158.61	0;
	2	0	0	3	0	158.61	0;
	2	0	0	3	0	107.03	0;
	2	0	0	3	0	107.03	0;
	2	0	0	3	0	107.03	0;
	2	0	0	3	0	107.03	0;
	2	0	0	3	0	107.03	0;
	2	0	0	3	0	107.03	0;
	2	0	0	3	0	107.03	0;
	2	0	0	3	0	107.03	0;
	2	0	0	3	0	107.03	0;
	2	0	0	3	0	107.03	0;
	2	0	0	3	0	107.03	0;
	2	0	0	3	0	143.52	0;
	2	0	0	3	0	143.52	0;
	2	0	0	3	0	143.52	0;
	2	0	0	3	0	143.52	0;
	2	0	0	3	0	143.52	0;
	2	0	0	3	0	143.52	0;
	2	0	0	3	0	143.52	0;
	2	0	0	3	0	143.52	0;
	2	0	0	3	0	148.16	0;
	2	0	0	3	0	148.16	0;
	2	0	0	3	0	148.16	0;
	2	0	0	3	0	148.16	0;
	2	0	0	3	0	148.16	0;
	2	0	0	3	0	148.16	0;
	2	0	0	3	0	148.16	0;
	2	0	0	3	0	0	0;
	2	0	0	3	0	134.04	0;
	2	0	0	3	0	134.04	0;
	2	0	0	3	0	134.04	0;
	2	0	0	3	0	134.04	0;
	2	0	0	3	0	134.04	0;
	2	0	0	3	0	126.62	0;
	2	0	0	3	0	126.62	0;
	2	0	0	3	0	0	0;
	2	0	0	3	0	0	0;
	2	0	0	3	0	130.49	0;
	2	0	0	3	0	130.49	0;
	2	0	0	3	0	132.33	0;
	2	0	0	3	0	132.33	0;
	2	0	0	3	0	136.59	0;
	2	0	0	3	0	136.59	0;
	2	0	0	3	0	139.96	0;
	2	0	0	3	0	128.21	0;
	2	0	0	3	0	128.21	0;
	2	0	0	3	0	128.21	0;
	2	0	0	3	0	128.21	0;
	2	0	0	3	0	128.21	0;
	2	0	0	3	0	137.4	0;
	2	0	0	3	0	137.4	0;
	2	0	0	3	0	137.4	0;
	2	0	0	3	0	137.4	0;
	2	0	0	3	0	129.99	0;
	2	0	0	3	0	129.99	0;
	2	0	0	3	0	129.99	0;
	2	0	0	3	0	135.6	0;
	2	0	0	3	0	135.6	0;
	2	0	0	3	0	135.6	0;
	2	0	0	3	0	163.16	0;
	2	0	0	3	0	163.16	0;
	2	0	0	3	0	163.16	0;
	2	0	0	3	0	163.16	0;
	2	0	0	3	0	163.16	0;
	2	0	0	3	0	163.16	0;
	2	0	0	3	0	163.16	0;
	2	0	0	3	0	139.01	0;
	2	0	0	3	0	139.01	0;
	2	0	0	3	0	139.01	0;
	2	0	0	3	0	139.01	0;
	2	0	0	3	0	139.01	0;
	2	0	0	3	0	139.01	0;
	2	0	0	3	0	139.01	0;
	2	0	0	3	0	139.01	0;
	2	0	0	3	0	125.48	0;
	2	0	0	3	0	125.48	0;
	2	0	0	3	0	125.48	0;
	2	0	0	3	0	125.48	0;
	2	0	0	3	0	125.48	0;
	2	0	0	3	0	137.4	0;
	2	0	0	3	0	137.4	0;
	2	0	0	3	0	137.4	0;
	2	0	0	3	0	137.4	0;
	2	0	0	3	0	137.4	0;
	2	0	0	3	0	0	0;
	2	0	0	3	0	0	0;
	2	0	0	3	0	0	0;
	2	0	0	3	0	0	0;
	2	0	0	3	0	0	0;
	2	0	0	3	0	0	0;
	2	0	0	3	0	0	0;
	2	0	0	3	0	0	0;
	2	0	0	3	0	0	0;
	2	0	0	3	0	0	0;
	2	0	0	3	0	0	0;
	2	0	0	3	0	0	0;
	2	0	0	3	0	0	0;
	2	0	0	3	0	107.03	0;
	2	0	0	3	0	0	0;
	2	0	0	3	0	0	0;
	2	0	0	3	0	0	0;
	2	0	0	3	0	0	0;
	2	0	0	3	0	0	0;
	2	0	0	3	0	0	0;
	2	0	0	3	0	0	0;
...
];
